STAAD SPACE
START JOB INFORMATION
ENGINEER DATE 27-Jan-26
END JOB INFORMATION
INPUT WIDTH 79
UNIT METER KN
JOINT COORDINATES
1 0 0 0; 2 1 0 0; 3 2 0 0; 4 3 0 0; 5 4 0 0; 6 5 0 0; 7 6 0 0; 8 7 0 0;
9 8 0 0;
MEMBER INCIDENCES
1 1 2; 2 2 3; 3 3 4; 4 4 5; 5 5 6; 6 6 7; 7 7 8; 8 8 9;
DEFINE MATERIAL START
ISOTROPIC CONCRETE
E 2.17185e+07
POISSON 0.17
DENSITY 23.5616
ALPHA 1e-05
DAMP 0.05
G 9.28139e+06
TYPE CONCRETE
STRENGTH FCU 27579
END DEFINE MATERIAL
MEMBER PROPERTY
1 TO 8 PRIS YD 0.3 ZD 0.2
CONSTANTS
MATERIAL CONCRETE ALL
SUPPORTS
1 9 FIXED BUT FX MX MZ
5 PINNED
LOAD 1 LOADTYPE None  TITLE LOAD CASE 1
JOINT LOAD
1 FY -1
LOAD 2 LOADTYPE None  TITLE LOAD CASE 2
JOINT LOAD
2 FY -1
LOAD 3 LOADTYPE None  TITLE LOAD CASE 3
JOINT LOAD
3 FY -1
LOAD 4 LOADTYPE None  TITLE LOAD CASE 4
JOINT LOAD
4 FY -1
LOAD 5 LOADTYPE None  TITLE LOAD CASE 5
JOINT LOAD
5 FY -1
LOAD 6 LOADTYPE None  TITLE LOAD CASE 6
JOINT LOAD
6 FY -1
LOAD 7 LOADTYPE None  TITLE LOAD CASE 7
JOINT LOAD
7 FY -1
LOAD 8 LOADTYPE None  TITLE LOAD CASE 8
JOINT LOAD
8 FY -1
LOAD 9 LOADTYPE None  TITLE LOAD CASE 9
JOINT LOAD
9 FY -1
PERFORM ANALYSIS
FINISH
